AMOSTRA/CAP/Cargas.dss
! ==========================================================
! CARGAS — mes 01
! BT: UCBT_tab agregada por transformador (kW = ENE/730 h)
! MT: UCMT_tab individual no PAC do consumidor
! fator de escala aplicado: 1
! 0 cargas de MT descartadas por PAC ausente da rede.
! ==========================================================
New Load.BT_3175337_1 Bus1=3175337-12858215.1.4 Phases=1 Model=8 zipv=(0.5,0,0.5,1,0,0,0) kv=0.1100 pf=0.92 kW=0.190329 Daily=RES-Tipo5
New Load.BT_3175337_2 Bus1=3175337-12858215.2.4 Phases=1 Model=8 zipv=(0.5,0,0.5,1,0,0,0) kv=0.1100 pf=0.92 kW=0.190329 Daily=RES-Tipo5
New Load.BT_2103686_1 Bus1=2103686-6662539.1.4 Phases=1 Model=8 zipv=(0.5,0,0.5,1,0,0,0) kv=0.1100 pf=0.92 kW=0.799062 Daily=RUR-Tipo2
New Load.BT_2103686_2 Bus1=2103686-6662539.2.4 Phases=1 Model=8 zipv=(0.5,0,0.5,1,0,0,0) kv=0.1100 pf=0.92 kW=0.799062 Daily=RUR-Tipo2
New Load.BT_2103504_1 Bus1=2103504-6662773.1.4 Phases=1 Model=8 zipv=(0.5,0,0.5,1,0,0,0) kv=0.1100 pf=0.92 kW=0.159788 Daily=RES-Tipo5
New Load.BT_2103504_2 Bus1=2103504-6662773.2.4 Phases=1 Model=8 zipv=(0.5,0,0.5,1,0,0,0) kv=0.1100 pf=0.92 kW=0.159788 Daily=RES-Tipo5
New Load.BT_2103745_1 Bus1=2103745-6664046.1.4 Phases=1 Model=8 zipv=(0.5,0,0.5,1,0,0,0) kv=0.1100 pf=0.92 kW=0.358185 Daily=RUR-Tipo2
New Load.BT_2103745_2 Bus1=2103745-6664046.2.4 Phases=1 Model=8 zipv=(0.5,0,0.5,1,0,0,0) kv=0.1100 pf=0.92 kW=0.358185 Daily=RUR-Tipo2
New Load.BT_2103558_1 Bus1=2103558-6662898.1.4 Phases=1 Model=8 zipv=(0.5,0,0.5,1,0,0,0) kv=0.1100 pf=0.92 kW=0.287493 Daily=RES-Tipo2
New Load.BT_2103558_2 Bus1=2103558-6662898.2.4 Phases=1 Model=8 zipv=(0.5,0,0.5,1,0,0,0) kv=0.1100 pf=0.92 kW=0.287493 Daily=RES-Tipo2
New Load.BT_2103738_1 Bus1=2103738-6662903v.1.4 Phases=1 Model=8 zipv=(0.5,0,0.5,1,0,0,0) kv=0.1100 pf=0.92 kW=0.074349 Daily=RUR-Tipo2
New Load.BT_2103738_2 Bus1=2103738-6662903v.2.4 Phases=1 Model=8 zipv=(0.5,0,0.5,1,0,0,0) kv=0.1100 pf=0.92 kW=0.074349 Daily=RUR-Tipo2
New Load.BT_2103483_1 Bus1=2103483-6664635.1.4 Phases=1 Model=8 zipv=(0.5,0,0.5,1,0,0,0) kv=0.1100 pf=0.92 kW=1.769192 Daily=RES-Tipo7
New Load.BT_2103483_2 Bus1=2103483-6664635.2.4 Phases=1 Model=8 zipv=(0.5,0,0.5,1,0,0,0) kv=0.1100 pf=0.92 kW=1.769192 Daily=RES-Tipo7
New Load.BT_2103530_1 Bus1=2103530-6661981.1.4 Phases=1 Model=8 zipv=(0.5,0,0.5,1,0,0,0) kv=0.1100 pf=0.92 kW=0.499082 Daily=RES-Tipo1
New Load.BT_2103530_2 Bus1=2103530-6661981.2.4 Phases=1 Model=8 zipv=(0.5,0,0.5,1,0,0,0) kv=0.1100 pf=0.92 kW=0.499082 Daily=RES-Tipo1
New Load.BT_2103638_1 Bus1=2103638-6662374.1.4 Phases=1 Model=8 zipv=(0.5,0,0.5,1,0,0,0) kv=0.1100 pf=0.92 kW=0.987534 Daily=RES-Tipo2
New Load.BT_2103638_2 Bus1=2103638-6662374.2.4 Phases=1 Model=8 zipv=(0.5,0,0.5,1,0,0,0) kv=0.1100 pf=0.92 kW=0.987534 Daily=RES-Tipo2
New Load.BT_2103733_1 Bus1=2103733-6663759.1.4 Phases=1 Model=8 zipv=(0.5,0,0.5,1,0,0,0) kv=0.1100 pf=0.92 kW=0.566719 Daily=RES-Tipo3
New Load.BT_2103733_2 Bus1=2103733-6663759.2.4 Phases=1 Model=8 zipv=(0.5,0,0.5,1,0,0,0) kv=0.1100 pf=0.92 kW=0.566719 Daily=RES-Tipo3
New Load.BT_2103465_1 Bus1=2103465-6662491.1.4 Phases=1 Model=8 zipv=(0.5,0,0.5,1,0,0,0) kv=0.1100 pf=0.92 kW=0.825007 Daily=RES-Tipo2
New Load.BT_2103465_2 Bus1=2103465-6662491.2.4 Phases=1 Model=8 zipv=(0.5,0,0.5,1,0,0,0) kv=0.1100 pf=0.92 kW=0.825007 Daily=RES-Tipo2
New Load.BT_2103539_1 Bus1=2103539-6663719.1.4 Phases=1 Model=8 zipv=(0.5,0,0.5,1,0,0,0) kv=0.1100 pf=0.92 kW=1.454562 Daily=RUR-Tipo10
New Load.BT_2103539_2 Bus1=2103539-6663719.2.4 Phases=1 Model=8 zipv=(0.5,0,0.5,1,0,0,0) kv=0.1100 pf=0.92 kW=1.454562 Daily=RUR-Tipo10
New Load.BT_2103708_1 Bus1=2103708-6664695.1.4 Phases=1 Model=8 zipv=(0.5,0,0.5,1,0,0,0) kv=0.1100 pf=0.92 kW=4.377575 Daily=RES-Tipo7
New Load.BT_2103708_2 Bus1=2103708-6664695.2.4 Phases=1 Model=8 zipv=(0.5,0,0.5,1,0,0,0) kv=0.1100 pf=0.92 kW=4.377575 Daily=RES-Tipo7
New Load.BT_2103485_1 Bus1=2103485-6663751.1.4 Phases=1 Model=8 zipv=(0.5,0,0.5,1,0,0,0) kv=0.1100 pf=0.92 kW=2.141240 Daily=RUR-Tipo2
New Load.BT_2103485_2 Bus1=2103485-6663751.2.4 Phases=1 Model=8 zipv=(0.5,0,0.5,1,0,0,0) kv=0.1100 pf=0.92 kW=2.141240 Daily=RUR-Tipo2
New Load.BT_2103687_1 Bus1=2103687-6662794.1.4 Phases=1 Model=8 zipv=(0.5,0,0.5,1,0,0,0) kv=0.1100 pf=0.92 kW=1.763610 Daily=RES-Tipo5
New Load.BT_2103687_2 Bus1=2103687-6662794.2.4 Phases=1 Model=8 zipv=(0.5,0,0.5,1,0,0,0) kv=0.1100 pf=0.92 kW=1.763610 Daily=RES-Tipo5
New Load.BT_2103763_1 Bus1=2103763-6662798.1.4 Phases=1 Model=8 zipv=(0.5,0,0.5,1,0,0,0) kv=0.1270 pf=0.92 kW=3.304758 Daily=RES-Tipo5
New Load.BT_2103763_2 Bus1=2103763-6662798.2.4 Phases=1 Model=8 zipv=(0.5,0,0.5,1,0,0,0) kv=0.1270 pf=0.92 kW=3.304758 Daily=RES-Tipo5
New Load.BT_2103763_3 Bus1=2103763-6662798.3.4 Phases=1 Model=8 zipv=(0.5,0,0.5,1,0,0,0) kv=0.1270 pf=0.92 kW=3.304758 Daily=RES-Tipo5
New Load.BT_2103524_1 Bus1=2103524-6662854.1.4 Phases=1 Model=8 zipv=(0.5,0,0.5,1,0,0,0) kv=0.1100 pf=0.92 kW=1.679781 Daily=RES-Tipo7
New Load.BT_2103524_2 Bus1=2103524-6662854.2.4 Phases=1 Model=8 zipv=(0.5,0,0.5,1,0,0,0) kv=0.1100 pf=0.92 kW=1.679781 Daily=RES-Tipo7
New Load.BT_2103517_1 Bus1=2103517-6662855v.1.4 Phases=1 Model=8 zipv=(0.5,0,0.5,1,0,0,0) kv=0.1100 pf=0.92 kW=0.180315 Daily=RUR-Tipo1
New Load.BT_2103517_2 Bus1=2103517-6662855v.2.4 Phases=1 Model=8 zipv=(0.5,0,0.5,1,0,0,0) kv=0.1100 pf=0.92 kW=0.180315 Daily=RUR-Tipo1
New Load.BT_2103712_1 Bus1=2103712-6662859.1.4 Phases=1 Model=8 zipv=(0.5,0,0.5,1,0,0,0) kv=0.1100 pf=0.92 kW=0.212527 Daily=RES-Tipo2
New Load.BT_2103712_2 Bus1=2103712-6662859.2.4 Phases=1 Model=8 zipv=(0.5,0,0.5,1,0,0,0) kv=0.1100 pf=0.92 kW=0.212527 Daily=RES-Tipo2
New Load.BT_2103715_1 Bus1=2103715-6662864.1.4 Phases=1 Model=8 zipv=(0.5,0,0.5,1,0,0,0) kv=0.1100 pf=0.92 kW=0.157185 Daily=RES-Tipo1
New Load.BT_2103715_2 Bus1=2103715-6662864.2.4 Phases=1 Model=8 zipv=(0.5,0,0.5,1,0,0,0) kv=0.1100 pf=0.92 kW=0.157185 Daily=RES-Tipo1
New Load.BT_2103721_1 Bus1=2103721-6664623.1.4 Phases=1 Model=8 zipv=(0.5,0,0.5,1,0,0,0) kv=0.1100 pf=0.92 kW=1.417329 Daily=RES-Tipo2
New Load.BT_2103721_2 Bus1=2103721-6664623.2.4 Phases=1 Model=8 zipv=(0.5,0,0.5,1,0,0,0) kv=0.1100 pf=0.92 kW=1.417329 Daily=RES-Tipo2
New Load.BT_2103647_1 Bus1=2103647-6662074.1.4 Phases=1 Model=8 zipv=(0.5,0,0.5,1,0,0,0) kv=0.1270 pf=0.92 kW=9.017240 Daily=RES-Tipo7
New Load.BT_2103647_2 Bus1=2103647-6662074.2.4 Phases=1 Model=8 zipv=(0.5,0,0.5,1,0,0,0) kv=0.1270 pf=0.92 kW=9.017240 Daily=RES-Tipo7
New Load.BT_2103526_1 Bus1=2103526-6662780.1.4 Phases=1 Model=8 zipv=(0.5,0,0.5,1,0,0,0) kv=0.1270 pf=0.92 kW=8.581493 Daily=RES-Tipo5
New Load.BT_2103526_2 Bus1=2103526-6662780.2.4 Phases=1 Model=8 zipv=(0.5,0,0.5,1,0,0,0) kv=0.1270 pf=0.92 kW=8.581493 Daily=RES-Tipo5
New Load.BT_2103526_3 Bus1=2103526-6662780.3.4 Phases=1 Model=8 zipv=(0.5,0,0.5,1,0,0,0) kv=0.1270 pf=0.92 kW=8.581493 Daily=RES-Tipo5
New Load.BT_2103481_1 Bus1=2103481-6664618.1.4 Phases=1 Model=8 zipv=(0.5,0,0.5,1,0,0,0) kv=0.1100 pf=0.92 kW=1.564466 Daily=RES-Tipo2
New Load.BT_2103481_2 Bus1=2103481-6664618.2.4 Phases=1 Model=8 zipv=(0.5,0,0.5,1,0,0,0) kv=0.1100 pf=0.92 kW=1.564466 Daily=RES-Tipo2
New Load.BT_2103762_1 Bus1=2103762-6663124.1.4 Phases=1 Model=8 zipv=(0.5,0,0.5,1,0,0,0) kv=0.1270 pf=0.92 kW=2.361342 Daily=RES-Tipo5
New Load.BT_2103762_2 Bus1=2103762-6663124.2.4 Phases=1 Model=8 zipv=(0.5,0,0.5,1,0,0,0) kv=0.1270 pf=0.92 kW=2.361342 Daily=RES-Tipo5
New Load.BT_2103762_3 Bus1=2103762-6663124.3.4 Phases=1 Model=8 zipv=(0.5,0,0.5,1,0,0,0) kv=0.1270 pf=0.92 kW=2.361342 Daily=RES-Tipo5
New Load.BT_3092242_1 Bus1=3092242-6663156.1.4 Phases=1 Model=8 zipv=(0.5,0,0.5,1,0,0,0) kv=0.1100 pf=0.92 kW=0.898781 Daily=RES-Tipo2
New Load.BT_3092242_2 Bus1=3092242-6663156.2.4 Phases=1 Model=8 zipv=(0.5,0,0.5,1,0,0,0) kv=0.1100 pf=0.92 kW=0.898781 Daily=RES-Tipo2
New Load.BT_2103685_1 Bus1=2103685-6664705.1.4 Phases=1 Model=8 zipv=(0.5,0,0.5,1,0,0,0) kv=0.1100 pf=0.92 kW=2.187493 Daily=RES-Tipo3
New Load.BT_2103685_2 Bus1=2103685-6664705.2.4 Phases=1 Model=8 zipv=(0.5,0,0.5,1,0,0,0) kv=0.1100 pf=0.92 kW=2.187493 Daily=RES-Tipo3
New Load.BT_2103644_1 Bus1=2103644-6662866v.1.4 Phases=1 Model=8 zipv=(0.5,0,0.5,1,0,0,0) kv=0.1100 pf=0.92 kW=0.101459 Daily=RUR-Tipo2
New Load.BT_2103644_2 Bus1=2103644-6662866v.2.4 Phases=1 Model=8 zipv=(0.5,0,0.5,1,0,0,0) kv=0.1100 pf=0.92 kW=0.101459 Daily=RUR-Tipo2
New Load.BT_2103604_1 Bus1=2103604-6662803v.1.4 Phases=1 Model=8 zipv=(0.5,0,0.5,1,0,0,0) kv=0.1100 pf=0.92 kW=0.040877 Daily=RES-Tipo9
New Load.BT_2103604_2 Bus1=2103604-6662803v.2.4 Phases=1 Model=8 zipv=(0.5,0,0.5,1,0,0,0) kv=0.1100 pf=0.92 kW=0.040877 Daily=RES-Tipo9
New Load.BT_2103480_1 Bus1=2103480-6662808.1.4 Phases=1 Model=8 zipv=(0.5,0,0.5,1,0,0,0) kv=0.1100 pf=0.92 kW=0.229205 Daily=RUR-Tipo1
New Load.BT_2103480_2 Bus1=2103480-6662808.2.4 Phases=1 Model=8 zipv=(0.5,0,0.5,1,0,0,0) kv=0.1100 pf=0.92 kW=0.229205 Daily=RUR-Tipo1
New Load.BT_2103572_1 Bus1=2103572-6662739v.1.4 Phases=1 Model=8 zipv=(0.5,0,0.5,1,0,0,0) kv=0.1100 pf=0.92 kW=0.111932 Daily=RES-Tipo1
New Load.BT_2103572_2 Bus1=2103572-6662739v.2.4 Phases=1 Model=8 zipv=(0.5,0,0.5,1,0,0,0) kv=0.1100 pf=0.92 kW=0.111932 Daily=RES-Tipo1
New Load.BT_2103525_1 Bus1=2103525-6661988.1.4 Phases=1 Model=8 zipv=(0.5,0,0.5,1,0,0,0) kv=0.1100 pf=0.92 kW=0.628308 Daily=RES-Tipo10
New Load.BT_2103525_2 Bus1=2103525-6661988.2.4 Phases=1 Model=8 zipv=(0.5,0,0.5,1,0,0,0) kv=0.1100 pf=0.92 kW=0.628308 Daily=RES-Tipo10
New Load.BT_2103646_1 Bus1=2103646-6661675.1.4 Phases=1 Model=8 zipv=(0.5,0,0.5,1,0,0,0) kv=0.1100 pf=0.92 kW=0.276377 Daily=RUR-Tipo2
New Load.BT_2103646_2 Bus1=2103646-6661675.2.4 Phases=1 Model=8 zipv=(0.5,0,0.5,1,0,0,0) kv=0.1100 pf=0.92 kW=0.276377 Daily=RUR-Tipo2
New Load.BT_2103522_1 Bus1=2103522-6662758.1.4 Phases=1 Model=8 zipv=(0.5,0,0.5,1,0,0,0) kv=0.1100 pf=0.92 kW=5.571062 Daily=RES-Tipo1
New Load.BT_2103522_2 Bus1=2103522-6662758.2.4 Phases=1 Model=8 zipv=(0.5,0,0.5,1,0,0,0) kv=0.1100 pf=0.92 kW=5.571062 Daily=RES-Tipo1
New Load.BT_2103701_1 Bus1=2103701-6662813v.1.4 Phases=1 Model=8 zipv=(0.5,0,0.5,1,0,0,0) kv=0.1100 pf=0.92 kW=0.293260 Daily=RUR-Tipo7
New Load.BT_2103701_2 Bus1=2103701-6662813v.2.4 Phases=1 Model=8 zipv=(0.5,0,0.5,1,0,0,0) kv=0.1100 pf=0.92 kW=0.293260 Daily=RUR-Tipo7
New Load.BT_2103556_1 Bus1=2103556-6662787.1.4 Phases=1 Model=8 zipv=(0.5,0,0.5,1,0,0,0) kv=0.1100 pf=0.92 kW=2.393418 Daily=RUR-Tipo2
New Load.BT_2103556_2 Bus1=2103556-6662787.2.4 Phases=1 Model=8 zipv=(0.5,0,0.5,1,0,0,0) kv=0.1100 pf=0.92 kW=2.393418 Daily=RUR-Tipo2
New Load.BT_2103676_1 Bus1=2103676-6664636v.1.4 Phases=1 Model=8 zipv=(0.5,0,0.5,1,0,0,0) kv=0.1270 pf=0.92 kW=0.059557 Daily=RUR-Tipo7
New Load.BT_2103676_2 Bus1=2103676-6664636v.2.4 Phases=1 Model=8 zipv=(0.5,0,0.5,1,0,0,0) kv=0.1270 pf=0.92 kW=0.059557 Daily=RUR-Tipo7
New Load.BT_2103676_3 Bus1=2103676-6664636v.3.4 Phases=1 Model=8 zipv=(0.5,0,0.5,1,0,0,0) kv=0.1270 pf=0.92 kW=0.059557 Daily=RUR-Tipo7
New Load.BT_2103667_1 Bus1=2103667-6664639v.1.4 Phases=1 Model=8 zipv=(0.5,0,0.5,1,0,0,0) kv=0.1100 pf=0.92 kW=0.220089 Daily=RUR-Tipo10
New Load.BT_2103667_2 Bus1=2103667-6664639v.2.4 Phases=1 Model=8 zipv=(0.5,0,0.5,1,0,0,0) kv=0.1100 pf=0.92 kW=0.220089 Daily=RUR-Tipo10
New Load.BT_2103673_1 Bus1=2103673-6664642v.1.4 Phases=1 Model=8 zipv=(0.5,0,0.5,1,0,0,0) kv=0.1100 pf=0.92 kW=0.103514 Daily=RES-Tipo2
New Load.BT_2103673_2 Bus1=2103673-6664642v.2.4 Phases=1 Model=8 zipv=(0.5,0,0.5,1,0,0,0) kv=0.1100 pf=0.92 kW=0.103514 Daily=RES-Tipo2
New Load.BT_2103681_1 Bus1=2103681-6664646v.1.4 Phases=1 Model=8 zipv=(0.5,0,0.5,1,0,0,0) kv=0.1100 pf=0.92 kW=0.123932 Daily=RES-Tipo2
New Load.BT_2103681_2 Bus1=2103681-6664646v.2.4 Phases=1 Model=8 zipv=(0.5,0,0.5,1,0,0,0) kv=0.1100 pf=0.92 kW=0.123932 Daily=RES-Tipo2
New Load.BT_2103495_1 Bus1=2103495-6664649v.1.4 Phases=1 Model=8 zipv=(0.5,0,0.5,1,0,0,0) kv=0.1100 pf=0.92 kW=0.046904 Daily=RUR-Tipo6
New Load.BT_2103495_2 Bus1=2103495-6664649v.2.4 Phases=1 Model=8 zipv=(0.5,0,0.5,1,0,0,0) kv=0.1100 pf=0.92 kW=0.046904 Daily=RUR-Tipo6
New Load.BT_2103503_1 Bus1=2103503-6664654v.1.4 Phases=1 Model=8 zipv=(0.5,0,0.5,1,0,0,0) kv=0.1100 pf=0.92 kW=0.052295 Daily=RUR-Tipo9
New Load.BT_2103503_2 Bus1=2103503-6664654v.2.4 Phases=1 Model=8 zipv=(0.5,0,0.5,1,0,0,0) kv=0.1100 pf=0.92 kW=0.052295 Daily=RUR-Tipo9
New Load.BT_2103612_1 Bus1=2103612-6661985.1.4 Phases=1 Model=8 zipv=(0.5,0,0.5,1,0,0,0) kv=0.1100 pf=0.92 kW=0.486966 Daily=RES-Tipo5
New Load.BT_2103612_2 Bus1=2103612-6661985.2.4 Phases=1 Model=8 zipv=(0.5,0,0.5,1,0,0,0) kv=0.1100 pf=0.92 kW=0.486966 Daily=RES-Tipo5
New Load.BT_2103684_1 Bus1=2103684-6663116v.1.4 Phases=1 Model=8 zipv=(0.5,0,0.5,1,0,0,0) kv=0.1100 pf=0.92 kW=0.073308 Daily=RUR-Tipo2
New Load.BT_2103684_2 Bus1=2103684-6663116v.2.4 Phases=1 Model=8 zipv=(0.5,0,0.5,1,0,0,0) kv=0.1100 pf=0.92 kW=0.073308 Daily=RUR-Tipo2
New Load.BT_2103486_1 Bus1=2103486-6663119.1.4 Phases=1 Model=8 zipv=(0.5,0,0.5,1,0,0,0) kv=0.1100 pf=0.92 kW=1.762521 Daily=RUR-Tipo2
New Load.BT_2103486_2 Bus1=2103486-6663119.2.4 Phases=1 Model=8 zipv=(0.5,0,0.5,1,0,0,0) kv=0.1100 pf=0.92 kW=1.762521 Daily=RUR-Tipo2
New Load.BT_2103629_1 Bus1=2103629-6661990.1.4 Phases=1 Model=8 zipv=(0.5,0,0.5,1,0,0,0) kv=0.1100 pf=0.92 kW=0.375801 Daily=RES-Tipo2
New Load.BT_2103629_2 Bus1=2103629-6661990.2.4 Phases=1 Model=8 zipv=(0.5,0,0.5,1,0,0,0) kv=0.1100 pf=0.92 kW=0.375801 Daily=RES-Tipo2
New Load.BT_2103518_1 Bus1=2103518-6662021.1.4 Phases=1 Model=8 zipv=(0.5,0,0.5,1,0,0,0) kv=0.1100 pf=0.92 kW=1.258199 Daily=RES-Tipo7
New Load.BT_2103518_2 Bus1=2103518-6662021.2.4 Phases=1 Model=8 zipv=(0.5,0,0.5,1,0,0,0) kv=0.1100 pf=0.92 kW=1.258199 Daily=RES-Tipo7
New Load.BT_2103731_1 Bus1=2103731-6664017.1.4 Phases=1 Model=8 zipv=(0.5,0,0.5,1,0,0,0) kv=0.1100 pf=0.92 kW=0.243486 Daily=RUR-Tipo10
New Load.BT_2103731_2 Bus1=2103731-6664017.2.4 Phases=1 Model=8 zipv=(0.5,0,0.5,1,0,0,0) kv=0.1100 pf=0.92 kW=0.243486 Daily=RUR-Tipo10
New Load.BT_2103478_1 Bus1=2103478-6664663v.1.4 Phases=1 Model=8 zipv=(0.5,0,0.5,1,0,0,0) kv=0.1100 pf=0.92 kW=0.042267 Daily=RES-Tipo1
New Load.BT_2103478_2 Bus1=2103478-6664663v.2.4 Phases=1 Model=8 zipv=(0.5,0,0.5,1,0,0,0) kv=0.1100 pf=0.92 kW=0.042267 Daily=RES-Tipo1
New Load.BT_2103699_1 Bus1=2103699-6664323.1.4 Phases=1 Model=8 zipv=(0.5,0,0.5,1,0,0,0) kv=0.1270 pf=0.92 kW=3.297772 Daily=RES-Tipo2
New Load.BT_2103699_2 Bus1=2103699-6664323.2.4 Phases=1 Model=8 zipv=(0.5,0,0.5,1,0,0,0) kv=0.1270 pf=0.92 kW=3.297772 Daily=RES-Tipo2
New Load.BT_2103699_3 Bus1=2103699-6664323.3.4 Phases=1 Model=8 zipv=(0.5,0,0.5,1,0,0,0) kv=0.1270 pf=0.92 kW=3.297772 Daily=RES-Tipo2
New Load.BT_2103553_1 Bus1=2103553-6661716.1.4 Phases=1 Model=8 zipv=(0.5,0,0.5,1,0,0,0) kv=0.1100 pf=0.92 kW=0.169959 Daily=RUR-Tipo2
New Load.BT_2103553_2 Bus1=2103553-6661716.2.4 Phases=1 Model=8 zipv=(0.5,0,0.5,1,0,0,0) kv=0.1100 pf=0.92 kW=0.169959 Daily=RUR-Tipo2
New Load.BT_2103554_1 Bus1=2103554-6661719.1.4 Phases=1 Model=8 zipv=(0.5,0,0.5,1,0,0,0) kv=0.1100 pf=0.92 kW=0.086479 Daily=RUR-Tipo2
New Load.BT_2103554_2 Bus1=2103554-6661719.2.4 Phases=1 Model=8 zipv=(0.5,0,0.5,1,0,0,0) kv=0.1100 pf=0.92 kW=0.086479 Daily=RUR-Tipo2
New Load.BT_2103490_1 Bus1=2103490-6663468.1.4 Phases=1 Model=8 zipv=(0.5,0,0.5,1,0,0,0) kv=0.1100 pf=0.92 kW=1.174678 Daily=RUR-Tipo5
New Load.BT_2103490_2 Bus1=2103490-6663468.2.4 Phases=1 Model=8 zipv=(0.5,0,0.5,1,0,0,0) kv=0.1100 pf=0.92 kW=1.174678 Daily=RUR-Tipo5
New Load.BT_2103645_1 Bus1=2103645-6664625v.1.4 Phases=1 Model=8 zipv=(0.5,0,0.5,1,0,0,0) kv=0.1100 pf=0.92 kW=0.762993 Daily=RES-Tipo1
New Load.BT_2103645_2 Bus1=2103645-6664625v.2.4 Phases=1 Model=8 zipv=(0.5,0,0.5,1,0,0,0) kv=0.1100 pf=0.92 kW=0.762993 Daily=RES-Tipo1
New Load.BT_2103500_1 Bus1=2103500-6664506.1.4 Phases=1 Model=8 zipv=(0.5,0,0.5,1,0,0,0) kv=0.1100 pf=0.92 kW=0.179096 Daily=RES-Tipo9
New Load.BT_2103500_2 Bus1=2103500-6664506.2.4 Phases=1 Model=8 zipv=(0.5,0,0.5,1,0,0,0) kv=0.1100 pf=0.92 kW=0.179096 Daily=RES-Tipo9
New Load.BT_2103709_1 Bus1=2103709-6664320.1.4 Phases=1 Model=8 zipv=(0.5,0,0.5,1,0,0,0) kv=0.1100 pf=0.92 kW=0.866329 Daily=RES-Tipo8
New Load.BT_2103709_2 Bus1=2103709-6664320.2.4 Phases=1 Model=8 zipv=(0.5,0,0.5,1,0,0,0) kv=0.1100 pf=0.92 kW=0.866329 Daily=RES-Tipo8
New Load.BT_2103740_1 Bus1=2103740-6663115v.1.4 Phases=1 Model=8 zipv=(0.5,0,0.5,1,0,0,0) kv=0.1100 pf=0.92 kW=0.049712 Daily=RES-Tipo5
New Load.BT_2103740_2 Bus1=2103740-6663115v.2.4 Phases=1 Model=8 zipv=(0.5,0,0.5,1,0,0,0) kv=0.1100 pf=0.92 kW=0.049712 Daily=RES-Tipo5
New Load.BT_3112597_1 Bus1=3112597-6663039v.1.4 Phases=1 Model=8 zipv=(0.5,0,0.5,1,0,0,0) kv=0.1100 pf=0.92 kW=0.498897 Daily=RES-Tipo5
New Load.BT_3112597_2 Bus1=3112597-6663039v.2.4 Phases=1 Model=8 zipv=(0.5,0,0.5,1,0,0,0) kv=0.1100 pf=0.92 kW=0.498897 Daily=RES-Tipo5
New Load.BT_2103741_1 Bus1=2103741-6663664.1.4 Phases=1 Model=8 zipv=(0.5,0,0.5,1,0,0,0) kv=0.1100 pf=0.92 kW=0.746952 Daily=RUR-Tipo2
New Load.BT_2103741_2 Bus1=2103741-6663664.2.4 Phases=1 Model=8 zipv=(0.5,0,0.5,1,0,0,0) kv=0.1100 pf=0.92 kW=0.746952 Daily=RUR-Tipo2
New Load.BT_2103493_1 Bus1=2103493-6663667v.1.4 Phases=1 Model=8 zipv=(0.5,0,0.5,1,0,0,0) kv=0.1100 pf=0.92 kW=0.154021 Daily=RUR-Tipo2
New Load.BT_2103493_2 Bus1=2103493-6663667v.2.4 Phases=1 Model=8 zipv=(0.5,0,0.5,1,0,0,0) kv=0.1100 pf=0.92 kW=0.154021 Daily=RUR-Tipo2
New Load.BT_2103540_1 Bus1=2103540-12432839.1.4 Phases=1 Model=8 zipv=(0.5,0,0.5,1,0,0,0) kv=0.1100 pf=0.92 kW=0.035151 Daily=RES-Tipo2
New Load.BT_2103540_2 Bus1=2103540-12432839.2.4 Phases=1 Model=8 zipv=(0.5,0,0.5,1,0,0,0) kv=0.1100 pf=0.92 kW=0.035151 Daily=RES-Tipo2
New Load.BT_2103751_1 Bus1=2103751-6663865.1.4 Phases=1 Model=8 zipv=(0.5,0,0.5,1,0,0,0) kv=0.1100 pf=0.92 kW=0.476952 Daily=RUR-Tipo2
New Load.BT_2103751_2 Bus1=2103751-6663865.2.4 Phases=1 Model=8 zipv=(0.5,0,0.5,1,0,0,0) kv=0.1100 pf=0.92 kW=0.476952 Daily=RUR-Tipo2
New Load.BT_2103528_1 Bus1=2103528-6664019.1.4 Phases=1 Model=8 zipv=(0.5,0,0.5,1,0,0,0) kv=0.1100 pf=0.92 kW=0.439534 Daily=RUR-Tipo2
New Load.BT_2103528_2 Bus1=2103528-6664019.2.4 Phases=1 Model=8 zipv=(0.5,0,0.5,1,0,0,0) kv=0.1100 pf=0.92 kW=0.439534 Daily=RUR-Tipo2
New Load.BT_2103461_1 Bus1=2103461-6664499.1.4 Phases=1 Model=8 zipv=(0.5,0,0.5,1,0,0,0) kv=0.1100 pf=0.92 kW=0.407418 Daily=RES-Tipo2
New Load.BT_2103461_2 Bus1=2103461-6664499.2.4 Phases=1 Model=8 zipv=(0.5,0,0.5,1,0,0,0) kv=0.1100 pf=0.92 kW=0.407418 Daily=RES-Tipo2
New Load.BT_2103689_1 Bus1=2103689-6664707v.1.4 Phases=1 Model=8 zipv=(0.5,0,0.5,1,0,0,0) kv=0.1100 pf=0.92 kW=0.089000 Daily=RES-Tipo5
New Load.BT_2103689_2 Bus1=2103689-6664707v.2.4 Phases=1 Model=8 zipv=(0.5,0,0.5,1,0,0,0) kv=0.1100 pf=0.92 kW=0.089000 Daily=RES-Tipo5
New Load.BT_2103562_1 Bus1=2103562-6663890.1.4 Phases=1 Model=8 zipv=(0.5,0,0.5,1,0,0,0) kv=0.1100 pf=0.92 kW=1.468637 Daily=RUR-Tipo2
New Load.BT_2103562_2 Bus1=2103562-6663890.2.4 Phases=1 Model=8 zipv=(0.5,0,0.5,1,0,0,0) kv=0.1100 pf=0.92 kW=1.468637 Daily=RUR-Tipo2
New Load.BT_2103764_1 Bus1=2103764-6663574.1.4 Phases=1 Model=8 zipv=(0.5,0,0.5,1,0,0,0) kv=0.1100 pf=0.92 kW=0.105082 Daily=RES-Tipo5
New Load.BT_2103764_2 Bus1=2103764-6663574.2.4 Phases=1 Model=8 zipv=(0.5,0,0.5,1,0,0,0) kv=0.1100 pf=0.92 kW=0.105082 Daily=RES-Tipo5
New Load.BT_2103665_1 Bus1=2103665-6663636.1.4 Phases=1 Model=8 zipv=(0.5,0,0.5,1,0,0,0) kv=0.1100 pf=0.92 kW=1.026014 Daily=RUR-Tipo10
New Load.BT_2103665_2 Bus1=2103665-6663636.2.4 Phases=1 Model=8 zipv=(0.5,0,0.5,1,0,0,0) kv=0.1100 pf=0.92 kW=1.026014 Daily=RUR-Tipo10
New Load.BT_2856382_1 Bus1=2856382-6662836.1.4 Phases=1 Model=8 zipv=(0.5,0,0.5,1,0,0,0) kv=0.1100 pf=0.92 kW=1.043445 Daily=RUR-Tipo2
New Load.BT_2856382_2 Bus1=2856382-6662836.2.4 Phases=1 Model=8 zipv=(0.5,0,0.5,1,0,0,0) kv=0.1100 pf=0.92 kW=1.043445 Daily=RUR-Tipo2
New Load.BT_2103555_1 Bus1=2103555-6662001.1.4 Phases=1 Model=8 zipv=(0.5,0,0.5,1,0,0,0) kv=0.1100 pf=0.92 kW=1.515719 Daily=RUR-Tipo2
New Load.BT_2103555_2 Bus1=2103555-6662001.2.4 Phases=1 Model=8 zipv=(0.5,0,0.5,1,0,0,0) kv=0.1100 pf=0.92 kW=1.515719 Daily=RUR-Tipo2
New Load.BT_2103542_1 Bus1=2103542-6663199.1.4 Phases=1 Model=8 zipv=(0.5,0,0.5,1,0,0,0) kv=0.1100 pf=0.92 kW=0.520507 Daily=RES-Tipo2
New Load.BT_2103542_2 Bus1=2103542-6663199.2.4 Phases=1 Model=8 zipv=(0.5,0,0.5,1,0,0,0) kv=0.1100 pf=0.92 kW=0.520507 Daily=RES-Tipo2
New Load.BT_2103511_1 Bus1=2103511-6662070.1.4 Phases=1 Model=8 zipv=(0.5,0,0.5,1,0,0,0) kv=0.1270 pf=0.92 kW=3.519283 Daily=RES-Tipo1
New Load.BT_2103511_2 Bus1=2103511-6662070.2.4 Phases=1 Model=8 zipv=(0.5,0,0.5,1,0,0,0) kv=0.1270 pf=0.92 kW=3.519283 Daily=RES-Tipo1
New Load.BT_2103511_3 Bus1=2103511-6662070.3.4 Phases=1 Model=8 zipv=(0.5,0,0.5,1,0,0,0) kv=0.1270 pf=0.92 kW=3.519283 Daily=RES-Tipo1
New Load.BT_2103546_1 Bus1=2103546-6663776.1.4 Phases=1 Model=8 zipv=(0.5,0,0.5,1,0,0,0) kv=0.1100 pf=0.92 kW=1.367500 Daily=RUR-Tipo2
New Load.BT_2103546_2 Bus1=2103546-6663776.2.4 Phases=1 Model=8 zipv=(0.5,0,0.5,1,0,0,0) kv=0.1100 pf=0.92 kW=1.367500 Daily=RUR-Tipo2
New Load.BT_2103662_1 Bus1=2103662-6663713v.1.4 Phases=1 Model=8 zipv=(0.5,0,0.5,1,0,0,0) kv=0.1100 pf=0.92 kW=0.167212 Daily=RUR-Tipo1
New Load.BT_2103662_2 Bus1=2103662-6663713v.2.4 Phases=1 Model=8 zipv=(0.5,0,0.5,1,0,0,0) kv=0.1100 pf=0.92 kW=0.167212 Daily=RUR-Tipo1
New Load.BT_2103720_1 Bus1=2103720-6663721.1.4 Phases=1 Model=8 zipv=(0.5,0,0.5,1,0,0,0) kv=0.1100 pf=0.92 kW=2.113089 Daily=RES-Tipo2
New Load.BT_2103720_2 Bus1=2103720-6663721.2.4 Phases=1 Model=8 zipv=(0.5,0,0.5,1,0,0,0) kv=0.1100 pf=0.92 kW=2.113089 Daily=RES-Tipo2
New Load.BT_3178738_1 Bus1=3178738-6664468.1.4 Phases=1 Model=8 zipv=(0.5,0,0.5,1,0,0,0) kv=0.1270 pf=0.92 kW=0.919963 Daily=RES-Tipo2
New Load.BT_3178738_2 Bus1=3178738-6664468.2.4 Phases=1 Model=8 zipv=(0.5,0,0.5,1,0,0,0) kv=0.1270 pf=0.92 kW=0.919963 Daily=RES-Tipo2
New Load.BT_3178738_3 Bus1=3178738-6664468.3.4 Phases=1 Model=8 zipv=(0.5,0,0.5,1,0,0,0) kv=0.1270 pf=0.92 kW=0.919963 Daily=RES-Tipo2
New Load.BT_2103484_1 Bus1=2103484-6662792.1.4 Phases=1 Model=8 zipv=(0.5,0,0.5,1,0,0,0) kv=0.1100 pf=0.92 kW=0.650692 Daily=RUR-Tipo2
New Load.BT_2103484_2 Bus1=2103484-6662792.2.4 Phases=1 Model=8 zipv=(0.5,0,0.5,1,0,0,0) kv=0.1100 pf=0.92 kW=0.650692 Daily=RUR-Tipo2
New Load.BT_2103761_1 Bus1=2103761-6662802.1.4 Phases=1 Model=8 zipv=(0.5,0,0.5,1,0,0,0) kv=0.1270 pf=0.92 kW=1.453178 Daily=RES-Tipo5
New Load.BT_2103761_2 Bus1=2103761-6662802.2.4 Phases=1 Model=8 zipv=(0.5,0,0.5,1,0,0,0) kv=0.1270 pf=0.92 kW=1.453178 Daily=RES-Tipo5
New Load.BT_2103761_3 Bus1=2103761-6662802.3.4 Phases=1 Model=8 zipv=(0.5,0,0.5,1,0,0,0) kv=0.1270 pf=0.92 kW=1.453178 Daily=RES-Tipo5
New Load.BT_2103736_1 Bus1=2103736-6662895.1.4 Phases=1 Model=8 zipv=(0.5,0,0.5,1,0,0,0) kv=0.1100 pf=0.92 kW=0.150384 Daily=RUR-Tipo2
New Load.BT_2103736_2 Bus1=2103736-6662895.2.4 Phases=1 Model=8 zipv=(0.5,0,0.5,1,0,0,0) kv=0.1100 pf=0.92 kW=0.150384 Daily=RUR-Tipo2
New Load.BT_2103477_1 Bus1=2103477-6663723v.1.4 Phases=1 Model=8 zipv=(0.5,0,0.5,1,0,0,0) kv=0.1100 pf=0.92 kW=0.489795 Daily=RUR-Tipo2
New Load.BT_2103477_2 Bus1=2103477-6663723v.2.4 Phases=1 Model=8 zipv=(0.5,0,0.5,1,0,0,0) kv=0.1100 pf=0.92 kW=0.489795 Daily=RUR-Tipo2
New Load.BT_2103468_1 Bus1=2103468-6662121.1.4 Phases=1 Model=8 zipv=(0.5,0,0.5,1,0,0,0) kv=0.1100 pf=0.92 kW=0.357048 Daily=RUR-Tipo2
New Load.BT_2103468_2 Bus1=2103468-6662121.2.4 Phases=1 Model=8 zipv=(0.5,0,0.5,1,0,0,0) kv=0.1100 pf=0.92 kW=0.357048 Daily=RUR-Tipo2
New Load.BT_2103564_1 Bus1=2103564-6663940.1.4 Phases=1 Model=8 zipv=(0.5,0,0.5,1,0,0,0) kv=0.1100 pf=0.92 kW=0.305260 Daily=RUR-Tipo2
New Load.BT_2103564_2 Bus1=2103564-6663940.2.4 Phases=1 Model=8 zipv=(0.5,0,0.5,1,0,0,0) kv=0.1100 pf=0.92 kW=0.305260 Daily=RUR-Tipo2
New Load.BT_2103519_1 Bus1=2103519-6663096.1.4 Phases=1 Model=8 zipv=(0.5,0,0.5,1,0,0,0) kv=0.1100 pf=0.92 kW=1.817589 Daily=RES-Tipo1
New Load.BT_2103519_2 Bus1=2103519-6663096.2.4 Phases=1 Model=8 zipv=(0.5,0,0.5,1,0,0,0) kv=0.1100 pf=0.92 kW=1.817589 Daily=RES-Tipo1
New Load.BT_3187270_1 Bus1=3187270-12953442.1.4 Phases=1 Model=8 zipv=(0.5,0,0.5,1,0,0,0) kv=0.1100 pf=0.92 kW=3.016952 Daily=RES-Tipo2
New Load.BT_3187270_2 Bus1=3187270-12953442.2.4 Phases=1 Model=8 zipv=(0.5,0,0.5,1,0,0,0) kv=0.1100 pf=0.92 kW=3.016952 Daily=RES-Tipo2
New Load.BT_2103622_1 Bus1=2103622-6663129v.1.4 Phases=1 Model=8 zipv=(0.5,0,0.5,1,0,0,0) kv=0.1100 pf=0.92 kW=0.373575 Daily=RES-Tipo3
New Load.BT_2103622_2 Bus1=2103622-6663129v.2.4 Phases=1 Model=8 zipv=(0.5,0,0.5,1,0,0,0) kv=0.1100 pf=0.92 kW=0.373575 Daily=RES-Tipo3
New Load.BT_2103534_1 Bus1=2103534-6664641.1.4 Phases=1 Model=8 zipv=(0.5,0,0.5,1,0,0,0) kv=0.1100 pf=0.92 kW=2.254082 Daily=RES-Tipo2
New Load.BT_2103534_2 Bus1=2103534-6664641.2.4 Phases=1 Model=8 zipv=(0.5,0,0.5,1,0,0,0) kv=0.1100 pf=0.92 kW=2.254082 Daily=RES-Tipo2
New Load.BT_2103561_1 Bus1=2103561-6663727.1.4 Phases=1 Model=8 zipv=(0.5,0,0.5,1,0,0,0) kv=0.1270 pf=0.92 kW=1.911621 Daily=RES-Tipo2
New Load.BT_2103561_2 Bus1=2103561-6663727.2.4 Phases=1 Model=8 zipv=(0.5,0,0.5,1,0,0,0) kv=0.1270 pf=0.92 kW=1.911621 Daily=RES-Tipo2
New Load.BT_2103561_3 Bus1=2103561-6663727.3.4 Phases=1 Model=8 zipv=(0.5,0,0.5,1,0,0,0) kv=0.1270 pf=0.92 kW=1.911621 Daily=RES-Tipo2
New Load.BT_2103637_1 Bus1=2103637-6661983.1.4 Phases=1 Model=8 zipv=(0.5,0,0.5,1,0,0,0) kv=0.1100 pf=0.92 kW=1.111007 Daily=RES-Tipo2
New Load.BT_2103637_2 Bus1=2103637-6661983.2.4 Phases=1 Model=8 zipv=(0.5,0,0.5,1,0,0,0) kv=0.1100 pf=0.92 kW=1.111007 Daily=RES-Tipo2
New Load.BT_2103748_1 Bus1=2103748-6664250v.1.4 Phases=1 Model=8 zipv=(0.5,0,0.5,1,0,0,0) kv=0.1100 pf=0.92 kW=0.138884 Daily=RUR-Tipo2
New Load.BT_2103748_2 Bus1=2103748-6664250v.2.4 Phases=1 Model=8 zipv=(0.5,0,0.5,1,0,0,0) kv=0.1100 pf=0.92 kW=0.138884 Daily=RUR-Tipo2
New Load.BT_2103657_1 Bus1=2103657-6662862.1.4 Phases=1 Model=8 zipv=(0.5,0,0.5,1,0,0,0) kv=0.1100 pf=0.92 kW=0.154795 Daily=RUR-Tipo10
New Load.BT_2103657_2 Bus1=2103657-6662862.2.4 Phases=1 Model=8 zipv=(0.5,0,0.5,1,0,0,0) kv=0.1100 pf=0.92 kW=0.154795 Daily=RUR-Tipo10
New Load.BT_2103537_1 Bus1=2103537-6662784.1.4 Phases=1 Model=8 zipv=(0.5,0,0.5,1,0,0,0) kv=0.1100 pf=0.92 kW=0.543062 Daily=RUR-Tipo10
New Load.BT_2103537_2 Bus1=2103537-6662784.2.4 Phases=1 Model=8 zipv=(0.5,0,0.5,1,0,0,0) kv=0.1100 pf=0.92 kW=0.543062 Daily=RUR-Tipo10
New Load.BT_2103727_1 Bus1=2103727-6664327.1.4 Phases=1 Model=8 zipv=(0.5,0,0.5,1,0,0,0) kv=0.1100 pf=0.92 kW=0.397747 Daily=RUR-Tipo10
New Load.BT_2103727_2 Bus1=2103727-6664327.2.4 Phases=1 Model=8 zipv=(0.5,0,0.5,1,0,0,0) kv=0.1100 pf=0.92 kW=0.397747 Daily=RUR-Tipo10
New Load.BT_2103482_1 Bus1=2103482-6661661.1.4 Phases=1 Model=8 zipv=(0.5,0,0.5,1,0,0,0) kv=0.1100 pf=0.92 kW=3.276808 Daily=RES-Tipo7
New Load.BT_2103482_2 Bus1=2103482-6661661.2.4 Phases=1 Model=8 zipv=(0.5,0,0.5,1,0,0,0) kv=0.1100 pf=0.92 kW=3.276808 Daily=RES-Tipo7
New Load.BT_2103544_1 Bus1=2103544-6661733.1.4 Phases=1 Model=8 zipv=(0.5,0,0.5,1,0,0,0) kv=0.1100 pf=0.92 kW=0.115733 Daily=RUR-Tipo2
New Load.BT_2103544_2 Bus1=2103544-6661733.2.4 Phases=1 Model=8 zipv=(0.5,0,0.5,1,0,0,0) kv=0.1100 pf=0.92 kW=0.115733 Daily=RUR-Tipo2
New Load.BT_2103653_1 Bus1=2103653-12425150v.1.4 Phases=1 Model=8 zipv=(0.5,0,0.5,1,0,0,0) kv=0.1100 pf=0.92 kW=0.136760 Daily=RUR-Tipo1
New Load.BT_2103653_2 Bus1=2103653-12425150v.2.4 Phases=1 Model=8 zipv=(0.5,0,0.5,1,0,0,0) kv=0.1100 pf=0.92 kW=0.136760 Daily=RUR-Tipo1
New Load.BT_2103695_1 Bus1=2103695-6664493v.1.4 Phases=1 Model=8 zipv=(0.5,0,0.5,1,0,0,0) kv=0.1100 pf=0.92 kW=0.062240 Daily=RES-Tipo9
...

! --- cargas de media tensao (UCMT_tab) ---
New Load.MT_11945-11318252_0 Bus1=11945-11318252.1.2.3 Phases=3 Conn=wye Model=8 zipv=(0.5,0,0.5,1,0,0,0) kv=13.8000 pf=0.92 kW=22.1262 Daily=MT-Tipo8
New Load.MT_11945-12119060_1 Bus1=11945-12119060.1.2.3 Phases=3 Conn=wye Model=8 zipv=(0.5,0,0.5,1,0,0,0) kv=13.8000 pf=0.92 kW=50.3917 Daily=MT-Tipo3
New Load.MT_11945-6477254_2 Bus1=11945-6477254.1.2.3 Phases=3 Conn=wye Model=8 zipv=(0.5,0,0.5,1,0,0,0) kv=13.8000 pf=0.92 kW=112.6915 Daily=MT-Tipo1
New Load.MT_11945-12022158_3 Bus1=11945-12022158.1.2.3 Phases=3 Conn=wye Model=8 zipv=(0.5,0,0.5,1,0,0,0) kv=13.8000 pf=0.92 kW=27.9568 Daily=MT-Tipo1
New Load.MT_11942-6501200_4 Bus1=11942-6501200.1.2.3 Phases=3 Conn=wye Model=8 zipv=(0.5,0,0.5,1,0,0,0) kv=13.8000 pf=0.92 kW=58.6365 Daily=MT-Tipo1
New Load.MT_11942-12191915_5 Bus1=11942-12191915.1.2.3 Phases=3 Conn=wye Model=8 zipv=(0.5,0,0.5,1,0,0,0) kv=13.8000 pf=0.92 kW=327.7972 Daily=MT-Tipo3
New Load.MT_11942-12467997_6 Bus1=11942-12467997.1.2.3 Phases=3 Conn=wye Model=8 zipv=(0.5,0,0.5,1,0,0,0) kv=13.8000 pf=0.92 kW=14.4456 Daily=MT-Tipo1
New Load.MT_11942-12299781_7 Bus1=11942-12299781.1.2.3 Phases=3 Conn=wye Model=8 zipv=(0.5,0,0.5,1,0,0,0) kv=13.8000 pf=0.92 kW=330.8235 Daily=MT-Tipo2
New Load.MT_25449-10691944_8 Bus1=25449-10691944.1.2.3 Phases=3 Conn=wye Model=8 zipv=(0.5,0,0.5,1,0,0,0) kv=13.8000 pf=0.92 kW=52.4357 Daily=MT-Tipo5
New Load.MT_11942-11957281_9 Bus1=11942-11957281.1.2.3 Phases=3 Conn=wye Model=8 zipv=(0.5,0,0.5,1,0,0,0) kv=13.8000 pf=0.92 kW=17.6499 Daily=MT-Tipo1
New Load.MT_11919-12019738_10 Bus1=11919-12019738.1.2.3 Phases=3 Conn=wye Model=8 zipv=(0.5,0,0.5,1,0,0,0) kv=13.8000 pf=0.92 kW=36.7093 Daily=MT-Tipo1
New Load.MT_25449-10685895_11 Bus1=25449-10685895.1.2.3 Phases=3 Conn=wye Model=8 zipv=(0.5,0,0.5,1,0,0,0) kv=13.8000 pf=0.92 kW=13.7266 Daily=MT-Tipo7
New Load.MT_11924-11675424_12 Bus1=11924-11675424.1.2.3 Phases=3 Conn=wye Model=8 zipv=(0.5,0,0.5,1,0,0,0) kv=13.8000 pf=0.92 kW=1.1732 Daily=MT-Tipo1
New Load.MT_11942-12299781_13 Bus1=11942-12299781.1.2.3 Phases=3 Conn=wye Model=8 zipv=(0.5,0,0.5,1,0,0,0) kv=13.8000 pf=0.92 kW=7.2808 Daily=MT-Tipo2
New Load.MT_25449-12211436_14 Bus1=25449-12211436.1.2.3 Phases=3 Conn=wye Model=8 zipv=(0.5,0,0.5,1,0,0,0) kv=13.8000 pf=0.92 kW=1.7864 Daily=MT-Tipo7
New Load.MT_11942-11469178_15 Bus1=11942-11469178.1.2.3 Phases=3 Conn=wye Model=8 zipv=(0.5,0,0.5,1,0,0,0) kv=13.8000 pf=0.92 kW=13.6427 Daily=MT-Tipo1
New Load.MT_11942-11695426_16 Bus1=11942-11695426.1.2.3 Phases=3 Conn=wye Model=8 zipv=(0.5,0,0.5,1,0,0,0) kv=13.8000 pf=0.92 kW=13.4187 Daily=MT-Tipo7
New Load.MT_11958-6604082_17 Bus1=11958-6604082.1.2.3 Phases=3 Conn=wye Model=8 zipv=(0.5,0,0.5,1,0,0,0) kv=13.8000 pf=0.92 kW=1.8933 Daily=MT-Tipo1
New Load.MT_11924-6497161_18 Bus1=11924-6497161.1.2.3 Phases=3 Conn=wye Model=8 zipv=(0.5,0,0.5,1,0,0,0) kv=13.8000 pf=0.92 kW=3.7667 Daily=MT-Tipo1
New Load.MT_11958-13081690_19 Bus1=11958-13081690.1.2.3 Phases=3 Conn=wye Model=8 zipv=(0.5,0,0.5,1,0,0,0) kv=13.8000 pf=0.92 kW=0.6485 Daily=MT-Tipo1
New Load.MT_11945-11993424_20 Bus1=11945-11993424.1.2.3 Phases=3 Conn=wye Model=8 zipv=(0.5,0,0.5,1,0,0,0) kv=13.8000 pf=0.92 kW=218.4097 Daily=MT-Tipo8
New Load.MT_11942-6501889_21 Bus1=11942-6501889.1.2.3 Phases=3 Conn=wye Model=8 zipv=(0.5,0,0.5,1,0,0,0) kv=13.8000 pf=0.92 kW=4.7083 Daily=MT-Tipo1
New Load.MT_11942-6501187_22 Bus1=11942-6501187.1.2.3 Phases=3 Conn=wye Model=8 zipv=(0.5,0,0.5,1,0,0,0) kv=13.8000 pf=0.92 kW=6.5587 Daily=MT-Tipo10
New Load.MT_11919-6477582_23 Bus1=11919-6477582.1.2.3 Phases=3 Conn=wye Model=8 zipv=(0.5,0,0.5,1,0,0,0) kv=13.8000 pf=0.92 kW=1.7630 Daily=MT-Tipo1
New Load.MT_11942-12490475_24 Bus1=11942-12490475.1.2.3 Phases=3 Conn=wye Model=8 zipv=(0.5,0,0.5,1,0,0,0) kv=13.8000 pf=0.92 kW=2.6628 Daily=MT-Tipo1
New Load.MT_11942-12878733_25 Bus1=11942-12878733.1.2.3 Phases=3 Conn=wye Model=8 zipv=(0.5,0,0.5,1,0,0,0) kv=13.8000 pf=0.92 kW=1.8043 Daily=MT-Tipo1
New Load.MT_26783-12557678_26 Bus1=26783-12557678.1.2.3 Phases=3 Conn=wye Model=8 zipv=(0.5,0,0.5,1,0,0,0) kv=13.8000 pf=0.92 kW=5.2807 Daily=MT-Tipo1
New Load.MT_26842-6485103_27 Bus1=26842-6485103.1.2.3 Phases=3 Conn=wye Model=8 zipv=(0.5,0,0.5,1,0,0,0) kv=13.8000 pf=0.92 kW=1.1774 Daily=MT-Tipo1
New Load.MT_15682-10563015_28 Bus1=15682-10563015.1.2.3 Phases=3 Conn=wye Model=8 zipv=(0.5,0,0.5,1,0,0,0) kv=13.8000 pf=0.92 kW=3.7237 Daily=MT-Tipo1
New Load.MT_11919-6477253_29 Bus1=11919-6477253.1.2.3 Phases=3 Conn=wye Model=8 zipv=(0.5,0,0.5,1,0,0,0) kv=13.8000 pf=0.92 kW=6.9346 Daily=MT-Tipo1
New Load.MT_26842-6482908_30 Bus1=26842-6482908.1.2.3 Phases=3 Conn=wye Model=8 zipv=(0.5,0,0.5,1,0,0,0) kv=13.8000 pf=0.92 kW=3.6946 Daily=MT-Tipo1
New Load.MT_25449-11815046_31 Bus1=25449-11815046.1.2.3 Phases=3 Conn=wye Model=8 zipv=(0.5,0,0.5,1,0,0,0) kv=13.8000 pf=0.92 kW=2.9077 Daily=MT-Tipo3
New Load.MT_11924-12497392_32 Bus1=11924-12497392.1.2.3 Phases=3 Conn=wye Model=8 zipv=(0.5,0,0.5,1,0,0,0) kv=13.8000 pf=0.92 kW=1.6188 Daily=MT-Tipo1
New Load.MT_15682-11603594_33 Bus1=15682-11603594.1.2.3 Phases=3 Conn=wye Model=8 zipv=(0.5,0,0.5,1,0,0,0) kv=13.8000 pf=0.92 kW=7.7082 Daily=MT-Tipo1
New Load.MT_15682-10564964_34 Bus1=15682-10564964.1.2.3 Phases=3 Conn=wye Model=8 zipv=(0.5,0,0.5,1,0,0,0) kv=13.8000 pf=0.92 kW=4.1276 Daily=MT-Tipo1
New Load.MT_25449-10687936_35 Bus1=25449-10687936.1.2.3 Phases=3 Conn=wye Model=8 zipv=(0.5,0,0.5,1,0,0,0) kv=13.8000 pf=0.92 kW=0.9131 Daily=MT-Tipo3
New Load.MT_26842-6490056_36 Bus1=26842-6490056.1.2.3 Phases=3 Conn=wye Model=8 zipv=(0.5,0,0.5,1,0,0,0) kv=13.8000 pf=0.92 kW=861.6005 Daily=MT-Tipo5
New Load.MT_26842-6492609_37 Bus1=26842-6492609.1.2.3 Phases=3 Conn=wye Model=8 zipv=(0.5,0,0.5,1,0,0,0) kv=13.8000 pf=0.92 kW=1.8429 Daily=MT-Tipo1
New Load.MT_11972-11425746_38 Bus1=11972-11425746.1.2.3 Phases=3 Conn=wye Model=8 zipv=(0.5,0,0.5,1,0,0,0) kv=13.8000 pf=0.92 kW=0.6857 Daily=MT-Tipo5
New Load.MT_11958-6603273_39 Bus1=11958-6603273.1.2.3 Phases=3 Conn=wye Model=8 zipv=(0.5,0,0.5,1,0,0,0) kv=13.8000 pf=0.92 kW=2.4782 Daily=MT-Tipo1
New Load.MT_11920-6482005_40 Bus1=11920-6482005.1.2.3 Phases=3 Conn=wye Model=8 zipv=(0.5,0,0.5,1,0,0,0) kv=13.8000 pf=0.92 kW=12.4601 Daily=MT-Tipo1
New Load.MT_11958-6603227_41 Bus1=11958-6603227.1.2.3 Phases=3 Conn=wye Model=8 zipv=(0.5,0,0.5,1,0,0,0) kv=13.8000 pf=0.92 kW=2.5513 Daily=MT-Tipo1
New Load.MT_25449-12635435_42 Bus1=25449-12635435.1.2.3 Phases=3 Conn=wye Model=8 zipv=(0.5,0,0.5,1,0,0,0) kv=13.8000 pf=0.92 kW=1.9853 Daily=MT-Tipo8
New Load.MT_11972-6662778_43 Bus1=11972-6662778.1.2.3 Phases=3 Conn=wye Model=8 zipv=(0.5,0,0.5,1,0,0,0) kv=13.8000 pf=0.92 kW=1.6916 Daily=MT-Tipo10
New Load.MT_25449-12432146_44 Bus1=25449-12432146.1.2.3 Phases=3 Conn=wye Model=8 zipv=(0.5,0,0.5,1,0,0,0) kv=13.8000 pf=0.92 kW=5.2500 Daily=MT-Tipo5
New Load.MT_15682-12232442_45 Bus1=15682-12232442.1.2.3 Phases=3 Conn=wye Model=8 zipv=(0.5,0,0.5,1,0,0,0) kv=13.8000 pf=0.92 kW=0.3915 Daily=MT-Tipo1
New Load.MT_11942-6500908_46 Bus1=11942-6500908.1.2.3 Phases=3 Conn=wye Model=8 zipv=(0.5,0,0.5,1,0,0,0) kv=13.8000 pf=0.92 kW=9.3718 Daily=MT-Tipo10
New Load.MT_15682-10565232_47 Bus1=15682-10565232.1.2.3 Phases=3 Conn=wye Model=8 zipv=(0.5,0,0.5,1,0,0,0) kv=13.8000 pf=0.92 kW=5.7193 Daily=MT-Tipo6
New Load.MT_11942-12387821_48 Bus1=11942-12387821.1.2.3 Phases=3 Conn=wye Model=8 zipv=(0.5,0,0.5,1,0,0,0) kv=13.8000 pf=0.92 kW=10.2670 Daily=MT-Tipo1
New Load.MT_11942-6502298_49 Bus1=11942-6502298.1.2.3 Phases=3 Conn=wye Model=8 zipv=(0.5,0,0.5,1,0,0,0) kv=13.8000 pf=0.92 kW=27.1470 Daily=MT-Tipo10
New Load.MT_11945-12094269_50 Bus1=11945-12094269.1.2.3 Phases=3 Conn=wye Model=8 zipv=(0.5,0,0.5,1,0,0,0) kv=13.8000 pf=0.92 kW=26.6747 Daily=MT-Tipo1
New Load.MT_11942-6501431_51 Bus1=11942-6501431.1.2.3 Phases=3 Conn=wye Model=8 zipv=(0.5,0,0.5,1,0,0,0) kv=13.8000 pf=0.92 kW=7.0395 Daily=MT-Tipo1
New Load.MT_11945-6477575_52 Bus1=11945-6477575.1.2.3 Phases=3 Conn=wye Model=8 zipv=(0.5,0,0.5,1,0,0,0) kv=13.8000 pf=0.92 kW=18.2852 Daily=MT-Tipo1
New Load.MT_11942-6502428_53 Bus1=11942-6502428.1.2.3 Phases=3 Conn=wye Model=8 zipv=(0.5,0,0.5,1,0,0,0) kv=13.8000 pf=0.92 kW=7.9111 Daily=MT-Tipo10
New Load.MT_11942-6501065_54 Bus1=11942-6501065.1.2.3 Phases=3 Conn=wye Model=8 zipv=(0.5,0,0.5,1,0,0,0) kv=13.8000 pf=0.92 kW=20.6425 Daily=MT-Tipo1
New Load.MT_11942-6501559_55 Bus1=11942-6501559.1.2.3 Phases=3 Conn=wye Model=8 zipv=(0.5,0,0.5,1,0,0,0) kv=13.8000 pf=0.92 kW=39.2320 Daily=MT-Tipo10
New Load.MT_11942-6500696_56 Bus1=11942-6500696.1.2.3 Phases=3 Conn=wye Model=8 zipv=(0.5,0,0.5,1,0,0,0) kv=13.8000 pf=0.92 kW=15.2066 Daily=MT-Tipo6
New Load.MT_11920-6492625_57 Bus1=11920-6492625.1.2.3 Phases=3 Conn=wye Model=8 zipv=(0.5,0,0.5,1,0,0,0) kv=13.8000 pf=0.92 kW=26.7595 Daily=MT-Tipo9
New Load.MT_11919-6478225_58 Bus1=11919-6478225.1.2.3 Phases=3 Conn=wye Model=8 zipv=(0.5,0,0.5,1,0,0,0) kv=13.8000 pf=0.92 kW=0.3778 Daily=MT-Tipo7
New Load.MT_11942-12804766_59 Bus1=11942-12804766.1.2.3 Phases=3 Conn=wye Model=8 zipv=(0.5,0,0.5,1,0,0,0) kv=13.8000 pf=0.92 kW=2.4634 Daily=MT-Tipo1
New Load.MT_11945-11368115_60 Bus1=11945-11368115.1.2.3 Phases=3 Conn=wye Model=8 zipv=(0.5,0,0.5,1,0,0,0) kv=13.8000 pf=0.92 kW=4.8176 Daily=MT-Tipo8
New Load.MT_11945-6477583_61 Bus1=11945-6477583.1.2.3 Phases=3 Conn=wye Model=8 zipv=(0.5,0,0.5,1,0,0,0) kv=13.8000 pf=0.92 kW=2.7522 Daily=MT-Tipo8
New Load.MT_11945-11705000_62 Bus1=11945-11705000.1.2.3 Phases=3 Conn=wye Model=8 zipv=(0.5,0,0.5,1,0,0,0) kv=13.8000 pf=0.92 kW=4.3894 Daily=MT-Tipo1
New Load.MT_11972-12433434_63 Bus1=11972-12433434.1.2.3 Phases=3 Conn=wye Model=8 zipv=(0.5,0,0.5,1,0,0,0) kv=13.8000 pf=0.92 kW=16.0950 Daily=MT-Tipo3
New Load.MT_11972-12369639_64 Bus1=11972-12369639.1.2.3 Phases=3 Conn=wye Model=8 zipv=(0.5,0,0.5,1,0,0,0) kv=13.8000 pf=0.92 kW=1.1083 Daily=MT-Tipo2
New Load.MT_11919-12798785_65 Bus1=11919-12798785.1.2.3 Phases=3 Conn=wye Model=8 zipv=(0.5,0,0.5,1,0,0,0) kv=13.8000 pf=0.92 kW=8.7570 Daily=MT-Tipo2
New Load.MT_16114-10915245_66 Bus1=16114-10915245.1.2.3 Phases=3 Conn=wye Model=8 zipv=(0.5,0,0.5,1,0,0,0) kv=13.8000 pf=0.92 kW=12.8206 Daily=MT-Tipo9
New Load.MT_11958-12629866_67 Bus1=11958-12629866.1.2.3 Phases=3 Conn=wye Model=8 zipv=(0.5,0,0.5,1,0,0,0) kv=13.8000 pf=0.92 kW=2.9084 Daily=MT-Tipo2
New Load.MT_11942-12490528_68 Bus1=11942-12490528.1.2.3 Phases=3 Conn=wye Model=8 zipv=(0.5,0,0.5,1,0,0,0) kv=13.8000 pf=0.92 kW=1.4155 Daily=MT-Tipo1
New Load.MT_15682-10564592_69 Bus1=15682-10564592.1.2.3 Phases=3 Conn=wye Model=8 zipv=(0.5,0,0.5,1,0,0,0) kv=13.8000 pf=0.92 kW=3.6757 Daily=MT-Tipo8
New Load.MT_11942-6503084_70 Bus1=11942-6503084.1.2.3 Phases=3 Conn=wye Model=8 zipv=(0.5,0,0.5,1,0,0,0) kv=13.8000 pf=0.92 kW=3.0125 Daily=MT-Tipo10
New Load.MT_11942-6501193_71 Bus1=11942-6501193.1.2.3 Phases=3 Conn=wye Model=8 zipv=(0.5,0,0.5,1,0,0,0) kv=13.8000 pf=0.92 kW=0.0336 Daily=MT-Tipo1
New Load.MT_11942-11318757_72 Bus1=11942-11318757.1.2.3 Phases=3 Conn=wye Model=8 zipv=(0.5,0,0.5,1,0,0,0) kv=13.8000 pf=0.92 kW=8.1634 Daily=MT-Tipo4
New Load.MT_16114-12190539_73 Bus1=16114-12190539.1.2.3 Phases=3 Conn=wye Model=8 zipv=(0.5,0,0.5,1,0,0,0) kv=13.8000 pf=0.92 kW=3.2190 Daily=MT-Tipo7
New Load.MT_11919-6477914_74 Bus1=11919-6477914.1.2.3 Phases=3 Conn=wye Model=8 zipv=(0.5,0,0.5,1,0,0,0) kv=13.8000 pf=0.92 kW=3.4826 Daily=MT-Tipo1
New Load.MT_25449-12211451_75 Bus1=25449-12211451.1.2.3 Phases=3 Conn=wye Model=8 zipv=(0.5,0,0.5,1,0,0,0) kv=13.8000 pf=0.92 kW=3.6102 Daily=MT-Tipo3
New Load.MT_11919-12019738_76 Bus1=11919-12019738.1.2.3 Phases=3 Conn=wye Model=8 zipv=(0.5,0,0.5,1,0,0,0) kv=13.8000 pf=0.92 kW=0.5138 Daily=MT-Tipo2
New Load.MT_11942-12104226_77 Bus1=11942-12104226.1.2.3 Phases=3 Conn=wye Model=8 zipv=(0.5,0,0.5,1,0,0,0) kv=13.8000 pf=0.92 kW=1.1058 Daily=MT-Tipo1
New Load.MT_11945-6520973_78 Bus1=11945-6520973.1.2.3 Phases=3 Conn=wye Model=8 zipv=(0.5,0,0.5,1,0,0,0) kv=13.8000 pf=0.92 kW=3.6724 Daily=MT-Tipo9
New Load.MT_15682-10566788_79 Bus1=15682-10566788.1.2.3 Phases=3 Conn=wye Model=8 zipv=(0.5,0,0.5,1,0,0,0) kv=13.8000 pf=0.92 kW=1.2910 Daily=MT-Tipo10
New Load.MT_11920-6492621_80 Bus1=11920-6492621.1.2.3 Phases=3 Conn=wye Model=8 zipv=(0.5,0,0.5,1,0,0,0) kv=13.8000 pf=0.92 kW=4.8213 Daily=MT-Tipo5
New Load.MT_26842-12359915_81 Bus1=26842-12359915.1.2.3 Phases=3 Conn=wye Model=8 zipv=(0.5,0,0.5,1,0,0,0) kv=13.8000 pf=0.92 kW=1.6952 Daily=MT-Tipo2
New Load.MT_25449-10692078_82 Bus1=25449-10692078.1.2.3 Phases=3 Conn=wye Model=8 zipv=(0.5,0,0.5,1,0,0,0) kv=13.8000 pf=0.92 kW=9.2057 Daily=MT-Tipo5
New Load.MT_15682-10562103_83 Bus1=15682-10562103.1.2.3 Phases=3 Conn=wye Model=8 zipv=(0.5,0,0.5,1,0,0,0) kv=13.8000 pf=0.92 kW=3.7461 Daily=MT-Tipo1
New Load.MT_25449-11968371_84 Bus1=25449-11968371.1.2.3 Phases=3 Conn=wye Model=8 zipv=(0.5,0,0.5,1,0,0,0) kv=13.8000 pf=0.92 kW=6.7310 Daily=MT-Tipo3
New Load.MT_11972-11431328_85 Bus1=11972-11431328.1.2.3 Phases=3 Conn=wye Model=8 zipv=(0.5,0,0.5,1,0,0,0) kv=13.8000 pf=0.92 kW=2.5192 Daily=MT-Tipo7
New Load.MT_11920-12672473_86 Bus1=11920-12672473.1.2.3 Phases=3 Conn=wye Model=8 zipv=(0.5,0,0.5,1,0,0,0) kv=13.8000 pf=0.92 kW=1.0356 Daily=MT-Tipo6
New Load.MT_26842-12211266_87 Bus1=26842-12211266.1.2.3 Phases=3 Conn=wye Model=8 zipv=(0.5,0,0.5,1,0,0,0) kv=13.8000 pf=0.92 kW=0.9521 Daily=MT-Tipo3
New Load.MT_25449-10689472_88 Bus1=25449-10689472.1.2.3 Phases=3 Conn=wye Model=8 zipv=(0.5,0,0.5,1,0,0,0) kv=13.8000 pf=0.92 kW=6.5202 Daily=MT-Tipo7
New Load.MT_11958-12293013_89 Bus1=11958-12293013.1.2.3 Phases=3 Conn=wye Model=8 zipv=(0.5,0,0.5,1,0,0,0) kv=13.8000 pf=0.92 kW=3.1217 Daily=MT-Tipo2
New Load.MT_11924-6498354_90 Bus1=11924-6498354.1.2.3 Phases=3 Conn=wye Model=8 zipv=(0.5,0,0.5,1,0,0,0) kv=13.8000 pf=0.92 kW=9.9803 Daily=MT-Tipo8
New Load.MT_25449-10690613_91 Bus1=25449-10690613.1.2.3 Phases=3 Conn=wye Model=8 zipv=(0.5,0,0.5,1,0,0,0) kv=13.8000 pf=0.92 kW=0.8389 Daily=MT-Tipo6
New Load.MT_25449-10686810_92 Bus1=25449-10686810.1.2.3 Phases=3 Conn=wye Model=8 zipv=(0.5,0,0.5,1,0,0,0) kv=13.8000 pf=0.92 kW=1.2992 Daily=MT-Tipo7
New Load.MT_25449-10691947_93 Bus1=25449-10691947.1.2.3 Phases=3 Conn=wye Model=8 zipv=(0.5,0,0.5,1,0,0,0) kv=13.8000 pf=0.92 kW=1.4792 Daily=MT-Tipo4
New Load.MT_11920-6491015_94 Bus1=11920-6491015.1.2.3 Phases=3 Conn=wye Model=8 zipv=(0.5,0,0.5,1,0,0,0) kv=13.8000 pf=0.92 kW=1.3530 Daily=MT-Tipo1
New Load.MT_25449-12003336_95 Bus1=25449-12003336.1.2.3 Phases=3 Conn=wye Model=8 zipv=(0.5,0,0.5,1,0,0,0) kv=13.8000 pf=0.92 kW=16.9415 Daily=MT-Tipo4
New Load.MT_11919-6477422_96 Bus1=11919-6477422.1.2.3 Phases=3 Conn=wye Model=8 zipv=(0.5,0,0.5,1,0,0,0) kv=13.8000 pf=0.92 kW=24.7113 Daily=MT-Tipo10
New Load.MT_11919-6477422_97 Bus1=11919-6477422.1.2.3 Phases=3 Conn=wye Model=8 zipv=(0.5,0,0.5,1,0,0,0) kv=13.8000 pf=0.92 kW=32.0890 Daily=MT-Tipo9
New Load.MT_15682-10562954_98 Bus1=15682-10562954.1.2.3 Phases=3 Conn=wye Model=8 zipv=(0.5,0,0.5,1,0,0,0) kv=13.8000 pf=0.92 kW=8.9113 Daily=MT-Tipo1
New Load.MT_25449-10685779_99 Bus1=25449-10685779.1.2.3 Phases=3 Conn=wye Model=8 zipv=(0.5,0,0.5,1,0,0,0) kv=13.8000 pf=0.92 kW=4.8715 Daily=MT-Tipo7
New Load.MT_11958-12431941_104 Bus1=11958-12431941.1.2.3 Phases=3 Conn=wye Model=8 zipv=(0.5,0,0.5,1,0,0,0) kv=13.8000 pf=0.92 kW=0.1216 Daily=MT-Tipo2
New Load.MT_11972-12423709_105 Bus1=11972-12423709.1.2.3 Phases=3 Conn=wye Model=8 zipv=(0.5,0,0.5,1,0,0,0) kv=13.8000 pf=0.92 kW=0.2041 Daily=MT-Tipo8
New Load.MT_11924-6499973_154 Bus1=11924-6499973.1.2.3 Phases=3 Conn=wye Model=8 zipv=(0.5,0,0.5,1,0,0,0) kv=13.8000 pf=0.92 kW=2.1958 Daily=MT-Tipo1
New Load.MT_26842-12576596_155 Bus1=26842-12576596.1.2.3 Phases=3 Conn=wye Model=8 zipv=(0.5,0,0.5,1,0,0,0) kv=13.8000 pf=0.92 kW=5.3882 Daily=MT-Tipo2
New Load.MT_11919-6478559_156 Bus1=11919-6478559.1.2.3 Phases=3 Conn=wye Model=8 zipv=(0.5,0,0.5,1,0,0,0) kv=13.8000 pf=0.92 kW=26.0301 Daily=MT-Tipo1
New Load.MT_16114-11460454_157 Bus1=16114-11460454.1.2.3 Phases=3 Conn=wye Model=8 zipv=(0.5,0,0.5,1,0,0,0) kv=13.8000 pf=0.92 kW=7.9734 Daily=MT-Tipo6
New Load.MT_16114-11986642_158 Bus1=16114-11986642.1.2.3 Phases=3 Conn=wye Model=8 zipv=(0.5,0,0.5,1,0,0,0) kv=13.8000 pf=0.92 kW=18.1231 Daily=MT-Tipo8
New Load.MT_16114-11311154_159 Bus1=16114-11311154.1.2.3 Phases=3 Conn=wye Model=8 zipv=(0.5,0,0.5,1,0,0,0) kv=13.8000 pf=0.92 kW=7.6470 Daily=MT-Tipo1
New Load.MT_11919-6478420_160 Bus1=11919-6478420.1.2.3 Phases=3 Conn=wye Model=8 zipv=(0.5,0,0.5,1,0,0,0) kv=13.8000 pf=0.92 kW=230.2936 Daily=MT-Tipo7
New Load.MT_11919-6478238_161 Bus1=11919-6478238.1.2.3 Phases=3 Conn=wye Model=8 zipv=(0.5,0,0.5,1,0,0,0) kv=13.8000 pf=0.92 kW=111.6871 Daily=MT-Tipo4
New Load.MT_11924-12691162_162 Bus1=11924-12691162.1.2.3 Phases=3 Conn=wye Model=8 zipv=(0.5,0,0.5,1,0,0,0) kv=13.8000 pf=0.92 kW=0.0043 Daily=MT-Tipo2
New Load.MT_11942-6501890_163 Bus1=11942-6501890.1.2.3 Phases=3 Conn=wye Model=8 zipv=(0.5,0,0.5,1,0,0,0) kv=13.8000 pf=0.92 kW=12.6947 Daily=MT-Tipo1
New Load.MT_11919-6478038_164 Bus1=11919-6478038.1.2.3 Phases=3 Conn=wye Model=8 zipv=(0.5,0,0.5,1,0,0,0) kv=13.8000 pf=0.92 kW=25.9575 Daily=MT-Tipo1
New Load.MT_11919-12684237_165 Bus1=11919-12684237.1.2.3 Phases=3 Conn=wye Model=8 zipv=(0.5,0,0.5,1,0,0,0) kv=13.8000 pf=0.92 kW=3.2482 Daily=MT-Tipo1
New Load.MT_11920-11675125_166 Bus1=11920-11675125.1.2.3 Phases=3 Conn=wye Model=8 zipv=(0.5,0,0.5,1,0,0,0) kv=13.8000 pf=0.92 kW=21.4479 Daily=MT-Tipo3
New Load.MT_16114-12478497_167 Bus1=16114-12478497.1.2.3 Phases=3 Conn=wye Model=8 zipv=(0.5,0,0.5,1,0,0,0) kv=13.8000 pf=0.92 kW=4.9388 Daily=MT-Tipo1
New Load.MT_11942-11318690_168 Bus1=11942-11318690.1.2.3 Phases=3 Conn=wye Model=8 zipv=(0.5,0,0.5,1,0,0,0) kv=13.8000 pf=0.92 kW=11.4050 Daily=MT-Tipo1
New Load.MT_11942-6502181_169 Bus1=11942-6502181.1.2.3 Phases=3 Conn=wye Model=8 zipv=(0.5,0,0.5,1,0,0,0) kv=13.8000 pf=0.92 kW=4.1661 Daily=MT-Tipo1
New Load.MT_16114-10919177_170 Bus1=16114-10919177.1.2.3 Phases=3 Conn=wye Model=8 zipv=(0.5,0,0.5,1,0,0,0) kv=13.8000 pf=0.92 kW=39.1632 Daily=MT-Tipo10
New Load.MT_11919-6478417_171 Bus1=11919-6478417.1.2.3 Phases=3 Conn=wye Model=8 zipv=(0.5,0,0.5,1,0,0,0) kv=13.8000 pf=0.92 kW=9.2955 Daily=MT-Tipo1
New Load.MT_25449-10686920_172 Bus1=25449-10686920.1.2.3 Phases=3 Conn=wye Model=8 zipv=(0.5,0,0.5,1,0,0,0) kv=13.8000 pf=0.92 kW=8.4371 Daily=MT-Tipo6
New Load.MT_11942-6500922_173 Bus1=11942-6500922.1.2.3 Phases=3 Conn=wye Model=8 zipv=(0.5,0,0.5,1,0,0,0) kv=13.8000 pf=0.92 kW=0.1355 Daily=MT-Tipo1
New Load.MT_11919-6477914_174 Bus1=11919-6477914.1.2.3 Phases=3 Conn=wye Model=8 zipv=(0.5,0,0.5,1,0,0,0) kv=13.8000 pf=0.92 kW=1.1030 Daily=MT-Tipo1
New Load.MT_11942-11638154_175 Bus1=11942-11638154.1.2.3 Phases=3 Conn=wye Model=8 zipv=(0.5,0,0.5,1,0,0,0) kv=13.8000 pf=0.92 kW=0.3908 Daily=MT-Tipo1
New Load.MT_11958-6602720_176 Bus1=11958-6602720.1.2.3 Phases=3 Conn=wye Model=8 zipv=(0.5,0,0.5,1,0,0,0) kv=13.8000 pf=0.92 kW=2.4894 Daily=MT-Tipo1
New Load.MT_11920-6486788_177 Bus1=11920-6486788.1.2.3 Phases=3 Conn=wye Model=8 zipv=(0.5,0,0.5,1,0,0,0) kv=13.8000 pf=0.92 kW=0.7329 Daily=MT-Tipo1
New Load.MT_11958-6602721_178 Bus1=11958-6602721.1.2.3 Phases=3 Conn=wye Model=8 zipv=(0.5,0,0.5,1,0,0,0) kv=13.8000 pf=0.92 kW=0.3153 Daily=MT-Tipo1
New Load.MT_16114-10915609_179 Bus1=16114-10915609.1.2.3 Phases=3 Conn=wye Model=8 zipv=(0.5,0,0.5,1,0,0,0) kv=13.8000 pf=0.92 kW=6.8607 Daily=MT-Tipo1
New Load.MT_16114-10917417_180 Bus1=16114-10917417.1.2.3 Phases=3 Conn=wye Model=8 zipv=(0.5,0,0.5,1,0,0,0) kv=13.8000 pf=0.92 kW=5.5952 Daily=MT-Tipo1
New Load.MT_11920-12405349_181 Bus1=11920-12405349.1.2.3 Phases=3 Conn=wye Model=8 zipv=(0.5,0,0.5,1,0,0,0) kv=13.8000 pf=0.92 kW=10.7137 Daily=MT-Tipo2
